New content for file2.txtNew content

New line.
This is the first file.This is the second file. newAppended content
This is line 2 appended to file2.txt
This is an appended line.